src/mpc.m
function mpc = tempCase
%CASE5  Power flow data for modified 5 bus, 5 gen case based on PJM 5-bus system
%   Please see CASEFORMAT for details on the case file format.
%
%   Based on data from ...
%     F.Li and R.Bo, "Small Test Systems for Power System Economic Studies",
%     Proceedings of the 2010 IEEE Power & Energy Society General Meeting

%   Created by Rui Bo in 2006, modified in 2010, 2014.
%   Distributed with permission.

%   MATPOWER
%   $Id: case5.m 2408 2014-10-22 20:41:33Z ray $

%% MATPOWER Case Format : Version 2
mpc.version = '2';

%%-----  Power Flow Data  -----%%
%% system MVA base
mpc.baseMVA = 100;

%% bus data
%	bus_i	type	Pd	Qd	Gs	Bs	area	Vm	Va	baseKV	zone	Vmax	Vmin
mpc.bus = [
	1	3	0.000000	0.000000	0.000000	0.000000	1.000000	1.000000	0.000000	345.000000	1.000000	1.100000	0.900000;
	2	2	0.000000	0.000000	0.000000	0.000000	1.000000	1.000000	0.000000	345.000000	1.000000	1.100000	0.900000;
	3	2	0.000000	0.000000	0.000000	0.000000	1.000000	1.000000	0.000000	345.000000	1.000000	1.100000	0.900000;
	4	1	0.000000	0.000000	0.000000	0.000000	1.000000	1.000000	0.000000	345.000000	1.000000	1.100000	0.900000;
	5	1	57.061480	30.000000	0.000000	0.000000	1.000000	1.000000	0.000000	345.000000	1.000000	1.100000	0.900000;
	6	1	0.000000	0.000000	0.000000	0.000000	1.000000	1.000000	0.000000	345.000000	1.000000	1.100000	0.900000;
	7	1	62.453674	35.000000	0.000000	0.000000	1.000000	1.000000	0.000000	345.000000	1.000000	1.100000	0.900000;
	8	1	0.000000	0.000000	0.000000	0.000000	1.000000	1.000000	0.000000	345.000000	1.000000	1.100000	0.900000;
	9	1	84.385975	50.000000	0.000000	0.000000	1.000000	1.000000	0.000000	345.000000	1.000000	1.100000	0.900000;
];

%% generator data
%	bus	Pg	Qg	Qmax	Qmin	Vg	mBase	status	Pmax	Pmin	Pc1	Pc2	Qc1min	Qc1max	Qc2min	Qc2max	ramp_agc	ramp_10	ramp_30	ramp_q	apf
mpc.gen = [
	1	51.499570	0.000000	300.000000	-300.000000	1.000000	100.000000	1.000000	250.000000	10.000000	0.000000	0.000000	0.000000	0.000000	0.000000	0.000000	0.000000	0.000000	0.000000	0.000000	0.000000;
	2	87.067222	0.000000	300.000000	-300.000000	1.000000	100.000000	1.000000	300.000000	10.000000	0.000000	0.000000	0.000000	0.000000	0.000000	0.000000	0.000000	0.000000	0.000000	0.000000	0.000000;
	3	61.296105	0.000000	300.000000	-300.000000	1.000000	100.000000	1.000000	270.000000	10.000000	0.000000	0.000000	0.000000	0.000000	0.000000	0.000000	0.000000	0.000000	0.000000	0.000000	0.000000;
];

%% branch data
%	fbus	tbus	r	x	b	rateA	rateB	rateC	ratio	angle	status	angmin	angmax
mpc.branch = [
	1	4	0.00000	0.0576	0.00000	0.000000	0.000000	0.000000	0.000000	0.000000	1.000000	-360.000000	360.000000;
	4	5	0.01700	0.0920	0.15800	0.000000	0.000000	0.000000	0.000000	0.000000	1.000000	-360.000000	360.000000;
	5	6	0.03900	0.1700	0.35800	0.000000	0.000000	0.000000	0.000000	0.000000	1.000000	-360.000000	360.000000;
	3	6	0.00000	0.0586	0.00000	0.000000	0.000000	0.000000	0.000000	0.000000	1.000000	-360.000000	360.000000;
	6	7	0.01190	0.1008	0.20900	0.000000	0.000000	0.000000	0.000000	0.000000	1.000000	-360.000000	360.000000;
	7	8	0.00850	0.0720	0.14900	0.000000	0.000000	0.000000	0.000000	0.000000	1.000000	-360.000000	360.000000;
	8	2	0.00000	0.0625	0.00000	0.000000	0.000000	0.000000	0.000000	0.000000	1.000000	-360.000000	360.000000;
	8	9	0.03200	0.1610	0.30600	0.000000	0.000000	0.000000	0.000000	0.000000	1.000000	-360.000000	360.000000;
	9	4	0.01000	0.0850	0.17600	0.000000	0.000000	0.000000	0.000000	0.000000	1.000000	-360.000000	360.000000;
];

%%-----  OPF Data  -----%%
%% generator cost data
%	1	startup	shutdown	n	x1	y1	...	xn	yn
%	2	startup	shutdown	n	c(n-1)	...	c0
mpc.gencost = [
	2	0.000000	0.000000	0.000000	0.000000	0.000000	0.000000;
	2	0.000000	0.000000	0.000000	0.000000	0.000000	0.000000;
	2	0.000000	0.000000	0.000000	0.000000	0.000000	0.000000;
];
